20
$\beta$-xylose  75
C   9.956982   0.580343  -1.032097
H   9.697168   0.878578  -0.008561
O  11.345897   0.708121  -1.131661
H  11.631018   0.238781  -1.926980
C   8.273307  -1.077376  -0.923878
H   8.227682  -1.267200   0.157373
H   8.046952  -2.007973  -1.444729
O   9.608901  -0.763391  -1.284543
C   9.238128   1.440588  -2.065645
H   9.565655   1.086823  -3.053639
O   9.536831   2.816105  -1.899314
H  10.496621   2.908870  -1.866010
C   7.720200   1.275677  -1.995970
H   7.338206   2.121731  -1.419381
O   7.233043   1.330615  -3.335920
H   6.334573   1.675134  -3.331467
C   7.211725   0.006105  -1.258686
H   6.454318  -0.444105  -1.907855
O   6.583601   0.486631  -0.063157
H   6.184327  -0.251771   0.408808
