20
$\beta$-xylose  59
C  10.630447  -3.140903  -5.125183
H  11.545292  -2.616601  -5.416532
O  10.936469  -4.385670  -4.530370
H  11.471239  -4.218825  -3.744873
C   8.608169  -2.473689  -4.043798
H   8.307949  -1.874413  -3.184970
H   8.371798  -3.525265  -3.853909
O  10.019188  -2.280033  -4.189251
C   9.812192  -3.460058  -6.408548
H   9.675974  -4.542991  -6.419481
O  10.533606  -3.044787  -7.567800
H  11.257910  -3.659701  -7.724061
C   8.393474  -2.857796  -6.511616
H   8.372346  -2.237458  -7.411239
O   7.512565  -3.977551  -6.649063
H   6.648666  -3.660894  -6.933773
C   7.957626  -1.978515  -5.320461
H   6.869081  -2.037667  -5.236636
O   8.266272  -0.610128  -5.539388
H   9.191628  -0.473215  -5.298988
