20
$\beta$-xylose  20
C  -0.485270  -0.836294   0.953140
H  -1.341336  -0.229812   1.259862
O  -0.331396  -1.814408   1.940996
H   0.284081  -2.480633   1.607038
C  -1.005955  -0.629027  -1.387039
H  -2.082307  -0.638910  -1.587323
H  -0.482783  -1.054166  -2.244287
O  -0.719428  -1.486236  -0.279154
C   0.774848   0.027976   0.830940
H   1.630055  -0.654031   0.736162
O   0.927550   0.871642   1.962785
H   0.861756   0.322481   2.753557
C   0.770715   0.902168  -0.434352
H   0.937343   1.938476  -0.114023
O   1.843583   0.462971  -1.263672
H   1.973381   1.094231  -1.979216
C  -0.566650   0.817978  -1.187268
H  -0.446453   1.272801  -2.180966
O  -1.601568   1.488962  -0.471400
H  -1.296178   2.361196  -0.197863
