20
$\beta$-xylose  34
C   2.706211  -3.869926  -1.388373
H   2.052237  -3.467035  -2.166430
O   2.960375  -5.236078  -1.575912
H   3.225418  -5.383928  -2.490582
C   4.942291  -3.530931  -0.616824
H   5.614253  -2.680636  -0.514311
H   5.476425  -4.335027  -1.127631
O   3.876865  -3.076903  -1.457407
C   2.068534  -3.657879  -0.022767
H   1.175565  -4.273752   0.077776
O   1.645675  -2.303992   0.063135
H   2.366249  -1.745489  -0.257138
C   3.022337  -4.018905   1.135198
H   2.856809  -3.253777   1.900310
O   2.615793  -5.297933   1.626000
H   2.963564  -5.430338   2.513211
C   4.543613  -4.001904   0.798656
H   4.885470  -5.034627   0.913975
O   5.271783  -3.156278   1.700028
H   5.263638  -3.539421   2.583384
