20
$\beta$-xylose  44
C   5.471513  -3.762457  -7.516115
H   5.599635  -3.457676  -6.472858
O   6.651989  -3.451119  -8.254060
H   7.353273  -4.040052  -7.950763
C   4.155188  -5.810875  -8.094174
H   3.483117  -6.096809  -7.280718
H   4.549477  -6.722983  -8.541647
O   5.298254  -5.157286  -7.529533
C   4.342077  -2.950146  -8.158414
H   4.754647  -1.966637  -8.392905
O   3.278151  -2.754460  -7.245500
H   2.609460  -3.443454  -7.374962
C   3.888145  -3.636740  -9.450550
H   3.079310  -3.043601  -9.891980
O   4.916627  -3.728975 -10.417037
H   5.776187  -3.700538  -9.968804
C   3.321279  -5.030916  -9.126588
H   3.265573  -5.596615 -10.059677
O   2.001194  -4.910771  -8.556921
H   1.392040  -4.596098  -9.234814
