20
$\beta$-xylose  18
C   1.235884  -0.288665   0.289467
H   1.101581  -1.030006   1.086566
O   2.518431   0.280834   0.371861
H   3.176112  -0.422272   0.396411
C  -0.144566  -0.795884  -1.634182
H  -0.217651  -1.643655  -2.320803
H  -0.161211   0.121117  -2.236709
O   1.101419  -0.945767  -0.961299
C   0.252739   0.867133   0.466320
H   0.473901   1.603909  -0.317804
O   0.399690   1.449150   1.747355
H   1.321092   1.717994   1.843137
C  -1.199321   0.431644   0.293455
H  -1.586053   0.124727   1.269001
O  -1.909673   1.560140  -0.207526
H  -2.833502   1.496330   0.052910
C  -1.316653  -0.771643  -0.664806
H  -2.244709  -0.659220  -1.239799
O  -1.366394  -1.941209   0.147754
H  -1.169988  -2.716653  -0.388755
