20
$\beta$-xylose  27
C  -2.181827  -6.239114  -7.518808
H  -3.086048  -5.661433  -7.312954
O  -2.186749  -6.717903  -8.856851
H  -2.166683  -5.952729  -9.443110
C   0.187030  -5.874363  -7.081074
H   0.483057  -5.664852  -6.048672
H   0.869237  -5.341704  -7.745582
O  -1.130157  -5.344891  -7.288115
C  -2.172159  -7.486386  -6.629063
H  -2.820041  -8.224794  -7.114364
O  -2.726683  -7.091573  -5.381474
H  -2.805841  -7.865805  -4.814382
C  -0.757458  -8.095424  -6.476293
H  -0.459272  -7.979030  -5.431222
O  -0.723505  -9.504613  -6.708262
H  -1.033849  -9.681135  -7.604625
C   0.285100  -7.374842  -7.323130
H   0.103880  -7.592613  -8.382466
O   1.600973  -7.763868  -6.961865
H   1.624019  -8.727743  -6.926570
