20
$\beta$-xylose  64
C   7.701333  -3.891286 -12.236352
H   6.741789  -4.253563 -12.606512
O   8.076195  -2.886335 -13.153043
H   8.944841  -2.535716 -12.923059
C   8.498584  -3.369271 -10.023064
H   8.143285  -2.811802  -9.157242
H   9.393977  -2.873100 -10.416555
O   7.422771  -3.353332 -10.963669
C   8.713043  -5.086326 -12.258370
H   9.553097  -4.757875 -12.880371
O   8.108939  -6.234396 -12.848983
H   7.843771  -6.025395 -13.751866
C   9.331489  -5.544581 -10.909925
H   9.114951  -6.609472 -10.796736
O  10.742531  -5.309497 -10.906727
H  11.162938  -5.901318 -11.539075
C   8.789388  -4.815327  -9.672356
H   9.554983  -4.877542  -8.897363
O   7.627718  -5.446306  -9.160775
H   6.865236  -5.112389  -9.650602
