20
$\beta$-xylose  13
C  -1.055609  -0.697469  -0.108019
H  -0.704869  -1.627476   0.368116
O  -2.240519  -0.904096  -0.809713
H  -2.916166  -1.220641  -0.198054
C  -0.156265   0.380635   1.793190
H  -0.107959  -0.489586   2.456349
H  -0.355202   1.270209   2.389281
O  -1.283598   0.266117   0.907553
C   0.013499  -0.193904  -1.096955
H  -0.488908   0.260733  -1.955222
O   0.871503  -1.258026  -1.517927
H   0.363162  -1.901854  -2.023498
C   0.896088   0.878277  -0.430436
H   1.835547   0.934727  -0.981741
O   0.300061   2.161496  -0.520829
H  -0.587442   2.107466  -0.143174
C   1.183033   0.496026   1.028850
H   1.786773   1.281399   1.487737
O   1.944371  -0.705144   1.114983
H   1.837378  -1.223604   0.305538
