20
$\beta$-xylose  7
C   0.732855  -1.365059   0.298341
H   1.090657  -2.178831   0.934376
O   1.582530  -1.218167  -0.837311
H   1.498853  -2.013093  -1.375934
C  -1.515936  -0.659211  -0.270361
H  -2.011478  -0.434182   0.677651
H  -2.257955  -1.034106  -0.974124
O  -0.568882  -1.720179  -0.078867
C   0.812407  -0.026615   1.021569
H   1.865541   0.193944   1.223408
O   0.081995  -0.183393   2.230020
H   0.203272   0.600573   2.775204
C   0.245582   1.102778   0.126340
H  -0.208929   1.848466   0.784128
O   1.269025   1.790459  -0.582037
H   1.741419   1.138309  -1.116061
C  -0.851200   0.591280  -0.826318
H  -0.374008   0.334331  -1.779164
O  -1.875493   1.552752  -1.038921
H  -1.485163   2.328968  -1.455363
