20
$\beta$-xylose  52
C   1.586620   1.303139  -3.562778
H   0.681584   1.931317  -3.576254
O   2.507825   1.789194  -4.511313
H   2.896966   2.596051  -4.152578
C   2.072012   0.436036  -1.269264
H   1.695759   0.927669  -0.369789
H   3.082300   0.065587  -1.082123
O   2.166025   1.438157  -2.290752
C   1.180082  -0.117954  -4.032542
H   1.732865  -0.318411  -4.955646
O  -0.228791  -0.189993  -4.282749
H  -0.478260   0.482869  -4.925828
C   1.474293  -1.229751  -3.015802
H   0.821683  -2.076593  -3.256215
O   2.839997  -1.612693  -3.030377
H   3.079228  -1.925138  -3.909020
C   1.168183  -0.738742  -1.603064
H   1.401032  -1.538099  -0.893843
O  -0.208838  -0.423034  -1.445556
H  -0.612546  -0.258902  -2.308955
