20
$\beta$-xylose  49
C   3.281670   1.461369  -1.557643
H   2.518057   0.708109  -1.790117
O   3.300680   2.302767  -2.680019
H   3.980218   2.973716  -2.520214
C   3.619323   2.359828   0.765380
H   3.190440   1.742654   1.559118
H   3.458637   3.405419   1.033449
O   2.840665   2.161318  -0.422551
C   4.636277   0.760573  -1.370491
H   4.999736   0.480286  -2.364956
O   4.524015  -0.396554  -0.538120
H   3.854020  -0.988787  -0.896015
C   5.634720   1.689879  -0.679867
H   6.596817   1.184869  -0.561953
O   5.788042   2.896586  -1.439605
H   6.496242   2.782592  -2.080868
C   5.137610   2.057867   0.722826
H   5.684183   2.947510   1.036193
O   5.500891   1.052781   1.658880
H   5.134005   0.214683   1.345691
