20
$\beta$-xylose  14
C  -0.520005  -1.246594  -0.252507
H  -0.740845  -1.558290   0.779970
O  -0.713604  -2.284079  -1.152618
H  -1.610580  -2.624571  -1.055347
C  -1.414215   0.879657   0.339975
H  -1.950243   0.581433   1.251907
H  -1.968592   1.689151  -0.134319
O  -1.420541  -0.188683  -0.603554
C   0.944986  -0.768286  -0.345738
H   1.346796  -1.105238  -1.302668
O   1.750773  -1.359065   0.656475
H   1.531503  -0.937868   1.498234
C   1.003536   0.774964  -0.324497
H   2.016272   1.070769  -0.048986
O   0.749313   1.343787  -1.598901
H  -0.064875   0.954375  -1.943420
C   0.014835   1.328665   0.709953
H   0.074645   2.420692   0.721564
O   0.436851   0.804281   1.978530
H  -0.077053   1.201198   2.688328
