20
$\beta$-xylose  40
C   3.567717   1.232984  -0.995525
H   4.620554   1.111442  -0.725859
O   3.396300   1.349213  -2.382902
H   3.867114   0.630196  -2.819165
C   1.545506  -0.022122  -0.817046
H   1.125582  -0.754233  -0.129883
H   1.486980  -0.422280  -1.831195
O   2.924079   0.099851  -0.448168
C   3.007539   2.475426  -0.315609
H   3.458380   3.366856  -0.756447
O   3.411749   2.459019   1.046751
H   3.218362   1.582988   1.405785
C   1.466760   2.581574  -0.434582
H   1.126498   2.935562   0.544796
O   1.060745   3.497823  -1.451535
H   1.437065   4.364525  -1.263871
C   0.702551   1.264784  -0.725715
H   0.217903   1.418162  -1.693356
O  -0.296666   1.014850   0.268188
H  -0.961745   1.710534   0.220519
