20
$\beta$-xylose  29
C  -0.042172  -2.844177  -2.324883
H   0.041561  -1.968086  -2.967952
O   1.127866  -3.597794  -2.533854
H   0.960038  -4.540825  -2.436266
C  -0.362920  -3.218552   0.060233
H  -1.186213  -2.822779   0.660330
H   0.531377  -3.242523   0.686156
O  -0.143735  -2.304608  -1.023322
C  -1.333238  -3.601891  -2.656623
H  -1.213059  -4.123510  -3.608392
O  -2.390329  -2.672443  -2.852234
H  -2.343301  -2.008235  -2.152569
C  -1.693825  -4.638056  -1.553403
H  -2.683371  -4.365905  -1.170841
O  -1.707453  -5.984318  -2.034678
H  -2.468719  -6.113184  -2.610467
C  -0.721648  -4.636496  -0.378594
H   0.187232  -5.170428  -0.683520
O  -1.271856  -5.285389   0.756281
H  -1.467353  -6.197050   0.510499
