20
$\beta$-xylose  87
C   1.879941   7.731758  -0.532260
H   1.224268   7.290638   0.236302
O   1.137100   8.498990  -1.431016
H   0.754391   7.894041  -2.079214
C   3.351849   8.052684   1.259750
H   2.620858   8.119358   2.073084
H   4.201960   8.687531   1.506314
O   2.810188   8.597912   0.066835
C   2.700021   6.661669  -1.238599
H   3.322186   7.205216  -1.961175
O   1.801752   5.796632  -1.926132
H   2.296873   5.234419  -2.531240
C   3.622568   5.915887  -0.254395
H   3.170706   4.938023  -0.077944
O   4.883854   5.621954  -0.856132
H   5.300627   6.443470  -1.140399
C   3.781778   6.569863   1.153947
H   4.841050   6.477149   1.415134
O   2.993434   5.875387   2.124322
H   3.333866   4.980068   2.228245
