20
$\beta$-xylose  10
C   9.296083  -7.742565  -5.221125
H   8.845683  -6.748083  -5.163556
O   8.836234  -8.422534  -6.386742
H   9.167381  -7.948344  -7.157672
C  11.511466  -8.497989  -4.607553
H  11.627375  -8.221221  -3.557048
H  12.486207  -8.435762  -5.094622
O  10.681620  -7.535763  -5.273186
C   8.854582  -8.615328  -4.052254
H   7.772573  -8.763498  -4.124693
O   9.193790  -7.901814  -2.871013
H   8.848072  -8.376366  -2.108161
C   9.530263 -10.005804  -4.132464
H   9.614282 -10.401588  -3.117104
O   8.722327 -10.931139  -4.840687
H   8.550844 -10.556572  -5.714682
C  10.955281  -9.917734  -4.706896
H  10.905359 -10.212537  -5.760315
O  11.780742 -10.822342  -3.978541
H  12.553916 -11.048972  -4.504517
