20
$\beta$-xylose  23
C  -0.449856   1.220825  -0.557931
H   0.177136   1.999157  -0.095277
O  -1.504446   1.771829  -1.275992
H  -1.146089   2.347806  -1.961867
C   1.523399  -0.059194  -0.814819
H   2.177263   0.757119  -0.486654
H   2.038692  -0.629171  -1.586264
O   0.356768   0.470863  -1.456697
C  -1.023932   0.320049   0.552494
H  -2.097253   0.205715   0.383547
O  -0.771140   0.992264   1.794847
H  -1.357205   0.639643   2.472605
C  -0.360020  -1.070565   0.520772
H  -0.594096  -1.594437   1.450571
O  -0.896809  -1.864445  -0.524374
H  -0.761995  -1.390189  -1.355721
C   1.169264  -0.939261   0.413119
H   1.587764  -1.937618   0.280176
O   1.740532  -0.440314   1.616127
H   1.176935   0.268538   1.957540
