20
$\beta$-xylose  22
C  -1.160592   0.752516  -0.091649
H  -1.117183   1.462020   0.749791
O  -2.384860   0.805419  -0.743495
H  -2.541439   1.708125  -1.045421
C   1.144929   1.170725  -0.434705
H   1.179697   1.948327   0.337775
H   1.827276   1.446714  -1.236469
O  -0.148217   1.121429  -1.032421
C  -0.933329  -0.683502   0.439689
H  -1.712808  -1.322202   0.023202
O  -1.071601  -0.747299   1.849210
H  -0.294506  -0.326215   2.241912
C   0.432355  -1.216290  -0.037276
H   0.655677  -2.120227   0.534512
O   0.410429  -1.608233  -1.400207
H   0.098464  -0.855200  -1.919573
C   1.538979  -0.175666   0.207105
H   2.472661  -0.543351  -0.226585
O   1.717445   0.059414   1.616171
H   2.212009  -0.674245   1.997572
