20
$\beta$-xylose  74
C  10.535825  -1.603974  -3.829933
H   9.791477  -2.002286  -4.538176
O  11.833864  -1.883117  -4.256493
H  11.962793  -1.524821  -5.141624
C   9.036350   0.183519  -3.498498
H   8.499295   0.182156  -4.457970
H   9.086019   1.210448  -3.135930
O  10.384047  -0.202759  -3.709804
C  10.372237  -2.210654  -2.445830
H  11.148516  -1.755599  -1.819817
O  10.499870  -3.623480  -2.464893
H  11.376715  -3.836587  -2.804342
C   9.011511  -1.871111  -1.837061
H   8.380975  -2.754426  -1.966216
O   9.228687  -1.618326  -0.449872
H   8.430254  -1.839306   0.039613
C   8.234042  -0.706358  -2.510293
H   7.864737  -0.073203  -1.697578
O   7.120548  -1.322178  -3.171449
H   6.555972  -0.639883  -3.549641
