20
$\beta$-xylose  36
C   8.207070  -4.128992 -13.489254
H   8.526073  -3.487885 -12.662099
O   9.182686  -4.212359 -14.489773
H  10.032334  -4.421183 -14.085457
C   7.610534  -6.424682 -13.814363
H   7.094858  -7.183627 -13.226659
H   8.544660  -6.860490 -14.175751
O   7.923141  -5.376418 -12.883718
C   6.912177  -3.596767 -14.088058
H   7.090196  -2.624171 -14.551171
O   5.990580  -3.380619 -13.025166
H   6.099901  -4.099548 -12.388825
C   6.313509  -4.552342 -15.148884
H   5.227259  -4.501335 -15.010608
O   6.649907  -4.157517 -16.474856
H   6.251400  -3.300564 -16.660606
C   6.724545  -6.040707 -15.029220
H   7.289376  -6.254938 -15.934594
O   5.593483  -6.906848 -15.119175
H   4.991796  -6.726109 -14.388259
