20
$\beta$-xylose  39
C   3.835773  -1.070345  -6.629349
H   3.235518  -0.459398  -5.949088
O   5.163563  -1.192417  -6.153561
H   5.145668  -1.538893  -5.254276
C   3.644024  -3.282625  -7.633012
H   2.748472  -3.696980  -8.097893
H   4.115308  -4.084216  -7.060989
O   3.166544  -2.300470  -6.683036
C   3.891334  -0.454475  -8.023170
H   4.281445   0.563750  -7.973481
O   2.573999  -0.392886  -8.556947
H   2.028459  -1.044681  -8.098678
C   4.808560  -1.285532  -8.931708
H   4.556824  -1.034033  -9.963342
O   6.167778  -0.909844  -8.773874
H   6.391297  -0.988673  -7.837566
C   4.608150  -2.818917  -8.762704
H   5.597957  -3.222901  -8.555045
O   4.231738  -3.453741  -9.982356
H   3.432753  -3.035316 -10.323613
