20
$\beta$-xylose  31
C   8.927145  -5.968853 -11.868394
H   8.697919  -5.407708 -10.951737
O  10.284215  -5.751281 -12.239770
H  10.395247  -4.855570 -12.578273
C   8.788663  -8.260103 -12.583077
H   7.848101  -8.819048 -12.512674
H   9.610756  -8.955355 -12.407056
O   8.779680  -7.298047 -11.517961
C   7.969376  -5.530065 -12.991364
H   8.316981  -4.562631 -13.378308
O   6.632945  -5.415023 -12.514352
H   6.611545  -4.850861 -11.733459
C   7.934498  -6.522119 -14.179974
H   6.918287  -6.939287 -14.192987
O   8.222841  -5.887056 -15.416788
H   7.455391  -5.379599 -15.699654
C   8.914077  -7.676199 -13.994610
H   9.926140  -7.310973 -14.163535
O   8.730631  -8.712140 -14.945761
H   7.813136  -9.008315 -14.925467
