20
$\beta$-xylose  78
C   6.747414  -2.987507  -1.559292
H   6.415377  -3.143947  -2.592630
O   5.689076  -3.440844  -0.764222
H   6.011239  -3.559025   0.138227
C   9.146631  -3.248486  -1.422186
H   9.317490  -2.860218  -2.436592
H   9.862237  -4.048692  -1.236391
O   7.856913  -3.828611  -1.300201
C   7.005578  -1.453169  -1.389516
H   6.180006  -1.068215  -0.786536
O   7.013906  -0.820074  -2.672621
H   6.134582  -0.882198  -3.061019
C   8.313476  -1.016290  -0.699534
H   8.815005  -0.365498  -1.429439
O   7.971299  -0.264233   0.458660
H   8.788461   0.019969   0.885187
C   9.278125  -2.154157  -0.374673
H   9.016609  -2.587573   0.593645
O  10.608383  -1.671300  -0.211683
H  10.900681  -1.258294  -1.033063
