20
$\beta$-xylose  56
C   6.066686   2.872083  -2.186981
H   7.074279   3.299928  -2.187454
O   5.859757   2.119901  -1.019003
H   6.032285   2.685216  -0.257620
C   4.146634   4.192380  -3.146373
H   4.415976   5.080199  -3.738048
H   3.229085   4.425899  -2.601845
O   5.178197   3.982391  -2.190591
C   5.959070   1.890750  -3.361781
H   5.363629   1.035416  -3.020928
O   7.277665   1.473854  -3.675381
H   7.219457   0.830387  -4.391380
C   5.254286   2.488473  -4.565500
H   5.865350   3.306519  -4.980068
O   5.115567   1.456088  -5.528217
H   4.428797   1.721403  -6.152768
C   3.912238   3.037551  -4.113293
H   3.342578   2.235973  -3.636293
O   3.107867   3.444958  -5.217931
H   3.450320   4.275857  -5.570301
