20
$\beta$-xylose  68
C   6.355431  -2.457765 -14.195015
H   5.504526  -2.712308 -13.554378
O   7.038433  -3.649071 -14.396642
H   7.784662  -3.485008 -14.986992
C   5.198369  -0.762133 -15.511466
H   4.178284  -0.963450 -15.864584
H   5.688970  -0.125114 -16.252235
O   5.913218  -1.996031 -15.465105
C   7.219486  -1.370778 -13.537350
H   8.114524  -1.263577 -14.159140
O   7.691205  -1.754136 -12.256877
H   6.957306  -2.096751 -11.733819
C   6.513564   0.014634 -13.511671
H   6.361267   0.291848 -12.463514
O   7.267844   1.016344 -14.186701
H   8.117383   1.118902 -13.745301
C   5.143822  -0.015901 -14.186297
H   4.834827   1.016821 -14.382843
O   4.261418  -0.628772 -13.242410
H   3.389829  -0.726491 -13.640014
