20
$\beta$-xylose  67
C   1.302847  -5.479647  -7.312184
H   0.380027  -4.947259  -7.549598
O   1.707678  -6.301903  -8.396185
H   1.835141  -5.733524  -9.164978
C   3.448130  -4.949709  -6.465967
H   4.147850  -4.115262  -6.479566
H   3.870391  -5.774045  -7.052655
O   2.248139  -4.476097  -7.065041
C   1.020762  -6.433547  -6.130804
H   1.080150  -7.446840  -6.539642
O  -0.318688  -6.166313  -5.723634
H  -0.603891  -6.860207  -5.119454
C   2.003855  -6.376530  -4.925109
H   1.413444  -6.052372  -4.066642
O   2.444693  -7.691157  -4.577075
H   2.892135  -8.092427  -5.330578
C   3.197795  -5.389236  -5.038480
H   4.085446  -5.918699  -4.669139
O   2.981306  -4.205420  -4.278879
H   2.863163  -4.439562  -3.352435
