20
$\beta$-xylose  77
C   1.236686  -0.026351   0.003728
H   0.417974   0.700378   0.076447
O   2.109182   0.349446  -1.041255
H   2.440863   1.236536  -0.861252
C   2.112190  -1.131059   2.087978
H   1.724487  -0.862650   3.072914
H   3.189065  -1.289764   2.177440
O   1.903296   0.007252   1.241440
C   0.652473  -1.378799  -0.403221
H   1.436948  -1.955286  -0.907967
O  -0.462633  -1.216322  -1.271227
H  -0.150413  -0.883555  -2.119694
C   0.191699  -2.146697   0.817829
H  -0.529074  -1.547313   1.391580
O  -0.382035  -3.397175   0.470993
H  -1.035860  -3.242218  -0.221468
C   1.419332  -2.430003   1.665360
H   2.096945  -3.042248   1.055264
O   1.098922  -3.127324   2.857716
H   0.617040  -3.925522   2.608889
