20
$\beta$-xylose  54
C  10.017928  -0.093970  -5.178587
H  10.767380  -0.219003  -4.390933
O  10.103278  -1.154533  -6.100133
H   9.993163  -1.982107  -5.618264
C   7.751050   0.851616  -4.640969
H   7.673478   1.386522  -3.687981
H   6.803441   0.333194  -4.814165
O   8.760253  -0.146450  -4.522997
C  10.353002   1.186346  -5.959895
H  10.214869   0.961719  -7.024033
O  11.714065   1.489256  -5.699260
H  11.939930   2.278198  -6.205956
C   9.444155   2.353312  -5.620208
H   9.635270   2.688089  -4.590576
O   9.752151   3.395436  -6.532941
H   9.091813   4.089652  -6.419588
C   8.004692   1.890244  -5.729198
H   7.839831   1.470290  -6.728315
O   7.168087   3.030869  -5.535232
H   6.301682   2.870554  -5.920964
