20
$\beta$-xylose  25
C  -0.220681  -1.377837   0.530173
H  -0.992152  -1.580311   1.283907
O   0.532043  -2.539991   0.423754
H   1.298035  -2.368235  -0.139388
C  -1.460322   0.156180  -0.803576
H  -2.113136   0.324461   0.060289
H  -2.078860   0.148110  -1.699506
O  -0.856756  -1.138793  -0.724718
C   0.622932  -0.147483   0.969915
H   1.555215  -0.510473   1.411606
O  -0.080554   0.677725   1.902832
H  -0.153052   0.228504   2.750893
C   0.928144   0.725668  -0.249531
H   1.550940   1.571579   0.042978
O   1.681505  -0.035470  -1.192904
H   1.059552  -0.578317  -1.694404
C  -0.384307   1.265528  -0.855573
H  -0.172697   1.541941  -1.890718
O  -0.828891   2.456078  -0.231185
H  -0.898857   2.283245   0.717264
