20
$\beta$-xylose  28
C  -4.095064   2.116849  -0.359018
H  -4.469059   3.137267  -0.217936
O  -3.733187   1.552896   0.893010
H  -4.532225   1.479611   1.428093
C  -4.910881   0.158010  -1.549152
H  -5.179961   0.221620  -2.606668
H  -5.567863  -0.571672  -1.071969
O  -5.163270   1.443049  -0.956004
C  -2.806449   2.156676  -1.202253
H  -1.980541   2.363035  -0.512089
O  -2.879931   3.160507  -2.204518
H  -2.902098   4.030211  -1.791411
C  -2.535697   0.823780  -1.921387
H  -2.726252   0.988297  -2.984067
O  -1.172211   0.408734  -1.855907
H  -0.907657   0.341840  -0.930741
C  -3.458805  -0.290823  -1.442879
H  -3.219357  -0.535317  -0.400538
O  -3.327828  -1.446579  -2.254260
H  -2.384569  -1.601576  -2.388639
