20
$\beta$-xylose  26
C   7.633341  -4.231834  -7.227854
H   6.551246  -4.145218  -7.050225
O   8.249757  -3.868949  -6.033526
H   9.198364  -4.020883  -6.155221
C   7.932945  -5.969599  -8.861652
H   6.939131  -5.798004  -9.290962
H   8.122704  -7.041806  -8.871106
O   7.966807  -5.581618  -7.493971
C   8.030784  -3.285730  -8.390772
H   8.230998  -2.301114  -7.956202
O   7.015262  -3.191475  -9.393169
H   6.218232  -2.808029  -9.012760
C   9.271296  -3.823570  -9.100271
H   9.546263  -3.162975  -9.926234
O  10.343743  -3.922331  -8.153151
H  10.904104  -3.144373  -8.227472
C   8.983690  -5.216464  -9.700276
H   9.927501  -5.762392  -9.704051
O   8.580709  -5.131257 -11.058673
H   7.763978  -4.616446 -11.092339
