20
$\beta$-xylose  46
C -11.917966   2.931976  -4.087823
H -12.297436   3.256343  -3.113965
O -12.144958   3.950123  -5.057159
H -11.572980   4.696795  -4.843024
C  -9.861819   1.512458  -4.207035
H  -9.664217   1.036079  -3.239615
H  -8.902547   1.793801  -4.643721
O -10.525428   2.754929  -3.961541
C -12.698961   1.702927  -4.564803
H -13.643443   2.069786  -4.973461
O -13.000216   0.856304  -3.470883
H -12.394427   0.100702  -3.468417
C -11.913358   0.988135  -5.668689
H -12.476940   0.109229  -5.992224
O -11.699195   1.805416  -6.803259
H -11.750335   2.736859  -6.540206
C -10.574651   0.481641  -5.110469
H  -9.935947   0.228938  -5.960171
O -10.891111  -0.719677  -4.381419
H -10.086215  -1.114992  -4.031396
