20
$\beta$-xylose  8
C  -0.706105   1.097075  -0.895851
H  -1.502464   1.799136  -1.172236
O  -0.046747   0.641122  -2.072421
H   0.406450   1.391950  -2.472916
C   0.850191   1.090627   0.962522
H   0.248950   1.077781   1.874972
H   1.772533   1.637106   1.154802
O   0.154665   1.821284  -0.062457
C  -1.272175  -0.162100  -0.240373
H  -1.888550  -0.694017  -0.972250
O  -2.024105   0.163507   0.921047
H  -2.738477   0.766037   0.687404
C  -0.130129  -1.102086   0.198850
H  -0.468110  -1.599474   1.109570
O   0.113282  -2.136397  -0.745515
H   0.346321  -1.720132  -1.585291
C   1.162084  -0.331221   0.522027
H   1.766385  -0.285395  -0.391961
O   1.907790  -0.939474   1.565845
H   2.119990  -1.841993   1.303028
