20
$\beta$-xylose  63
C  11.972899  -4.187005 -12.132432
H  12.150784  -3.733713 -13.107423
O  13.259616  -4.371126 -11.586596
H  13.202357  -4.867755 -10.761752
C  10.352522  -3.719170 -10.410130
H   9.972339  -2.843798  -9.884524
H  10.867883  -4.365531  -9.689390
O  11.238854  -3.219856 -11.409975
C  11.252342  -5.557057 -12.356550
H  11.855197  -6.316973 -11.850020
O  11.191233  -5.852438 -13.748873
H  12.085458  -5.986668 -14.081916
C   9.825627  -5.728123 -11.790406
H   9.175985  -6.007968 -12.623258
O   9.921331  -6.794097 -10.837271
H   9.033547  -7.083799 -10.601536
C   9.241312  -4.474060 -11.114745
H   8.485983  -4.796676 -10.392326
O   8.576089  -3.636891 -12.045163
H   9.236423  -3.062898 -12.454710
