20
$\beta$-xylose  35
C  13.205206  -6.565285  -9.855849
H  12.254648  -7.088261  -9.993211
O  14.275929  -7.456491  -9.723344
H  14.223683  -8.119534 -10.420756
C  14.585335  -5.062257 -11.097172
H  14.437477  -4.268972 -11.829413
H  15.318983  -5.762116 -11.503420
O  13.320004  -5.727934 -10.996380
C  13.128155  -5.672430  -8.625666
H  13.048573  -6.275082  -7.721315
O  11.935001  -4.901055  -8.721360
H  11.820698  -4.646094  -9.646202
C  14.359724  -4.757486  -8.478697
H  13.971588  -3.804240  -8.102480
O  15.207065  -5.345342  -7.497450
H  15.913595  -4.725901  -7.285180
C  15.141335  -4.443241  -9.789031
H  16.143410  -4.846302  -9.645245
O  15.360105  -3.036995  -9.933430
H  14.511449  -2.586157 -10.009085
