20
$\beta$-xylose  70
C  11.485904   1.469021  -2.793530
H  11.858783   1.443025  -1.759620
O  12.568165   1.242957  -3.685190
H  12.807229   0.310098  -3.626687
C   9.217265   0.757561  -3.318065
H   8.694111   1.227076  -2.479855
H   8.734608  -0.193920  -3.535462
O  10.555072   0.425316  -2.928162
C  10.934550   2.859087  -3.132142
H  11.780693   3.547416  -3.216479
O  10.011174   3.301152  -2.141126
H  10.477077   3.475237  -1.316714
C  10.189225   2.835552  -4.473149
H   9.638003   3.773690  -4.562912
O  11.102704   2.813111  -5.556901
H  11.790786   2.162076  -5.360471
C   9.155694   1.675821  -4.541239
H   9.383494   1.107041  -5.443763
O   7.820545   2.131507  -4.719927
H   7.566457   2.660652  -3.954523
