20
$\beta$-xylose  32
C   5.973007  -1.312888  -6.621278
H   6.696060  -0.787894  -5.992098
O   6.319750  -1.214016  -7.991596
H   7.228988  -1.510202  -8.111796
C   5.095952  -3.567438  -6.798665
H   4.729005  -4.220906  -6.007747
H   5.688818  -4.171913  -7.488226
O   5.986277  -2.635494  -6.153224
C   4.574705  -0.732214  -6.456093
H   4.567769   0.325278  -6.724076
O   4.193007  -0.811371  -5.094354
H   4.496656  -1.656694  -4.739436
C   3.591074  -1.465341  -7.386208
H   2.598401  -1.355386  -6.947192
O   3.525131  -0.831685  -8.659167
H   4.420631  -0.797755  -9.019529
C   3.870742  -2.989771  -7.542285
H   4.016703  -3.148342  -8.614666
O   2.769070  -3.786430  -7.101269
H   2.008782  -3.604320  -7.664880
