20
$\beta$-xylose  82
C   3.786318   3.831497  -2.369562
H   3.019352   4.041979  -1.607402
O   3.968300   2.458033  -2.534135
H   3.123267   2.047792  -2.749979
C   2.906054   5.725453  -3.408948
H   1.959948   5.697507  -2.855697
H   2.711034   6.116640  -4.406162
O   3.398951   4.407216  -3.601331
C   5.131561   4.419815  -1.975427
H   5.841508   4.048914  -2.727335
O   5.532718   4.012955  -0.677936
H   5.572690   3.049419  -0.665435
C   5.136987   5.959511  -2.025276
H   5.203771   6.296895  -0.989849
O   6.323652   6.453223  -2.642688
H   6.436024   6.031197  -3.501523
C   3.870049   6.646206  -2.627645
H   4.248982   7.428043  -3.292975
O   3.066511   7.243362  -1.607286
H   3.564887   7.953344  -1.188068
