20
$\beta$-xylose  60
C  13.787567 -10.859395   2.693439
H  13.748193 -11.773780   3.294180
O  14.911926 -10.875439   1.836218
H  14.818894 -11.625013   1.235836
C  12.162654  -9.597126   1.478521
H  11.336849  -9.789804   0.794928
H  12.967563  -9.086096   0.941728
O  12.592813 -10.881957   1.949315
C  13.984585  -9.645594   3.646754
H  14.915623  -9.171781   3.324054
O  14.102979 -10.083532   5.000302
H  14.906195 -10.607113   5.095270
C  12.894414  -8.539598   3.626442
H  12.500229  -8.459556   4.642738
O  13.450262  -7.294095   3.202439
H  14.122983  -7.016714   3.832988
C  11.706095  -8.804418   2.686532
H  11.313911  -7.832678   2.383027
O  10.652488  -9.482014   3.354314
H  10.858062 -10.425465   3.354779
